<routes>
        <vType id="typeWE" accel="0.8" decel="4.5" sigma="0.5" length="5" minGap="2.5" maxSpeed="16.67" guiShape="passenger"/>
        <vType id="typeNS" accel="0.8" decel="4.5" sigma="0.5" length="5" minGap="2.5" maxSpeed="16.67" guiShape="passenger"/>

        <route id="right" edges="51o 1i 2o 52i" />
        <route id="left" edges="52o 2i 1o 51i" />
        <route id="down" edges="54o 4i 3o 53i" />
        <route id="up" edges="53o 3i 4o 54i" /> 
    <vehicle id="left_0" type="typeWE" route="left" depart="0" />
    <vehicle id="left_1" type="typeWE" route="left" depart="2" />
    <vehicle id="right_2" type="typeWE" route="right" depart="3" />
    <vehicle id="up_3" type="typeNS" route="up" depart="4" />
    <vehicle id="up_4" type="typeNS" route="up" depart="16" />
    <vehicle id="right_5" type="typeWE" route="right" depart="25" />
    <vehicle id="right_6" type="typeWE" route="right" depart="31" />
    <vehicle id="down_7" type="typeNS" route="down" depart="31" />
    <vehicle id="left_8" type="typeWE" route="left" depart="67" />
    <vehicle id="down_9" type="typeNS" route="down" depart="72" />
    <vehicle id="left_10" type="typeWE" route="left" depart="74" />
    <vehicle id="right_11" type="typeWE" route="right" depart="81" />
    <vehicle id="down_12" type="typeNS" route="down" depart="85" />
    <vehicle id="right_13" type="typeWE" route="right" depart="92" />
    <vehicle id="down_14" type="typeNS" route="down" depart="98" />
    <vehicle id="up_15" type="typeNS" route="up" depart="103" />
    <vehicle id="up_16" type="typeNS" route="up" depart="106" />
    <vehicle id="left_17" type="typeWE" route="left" depart="120" />
    <vehicle id="left_18" type="typeWE" route="left" depart="123" />
    <vehicle id="left_19" type="typeWE" route="left" depart="125" />
    <vehicle id="right_20" type="typeWE" route="right" depart="126" />
    <vehicle id="down_21" type="typeNS" route="down" depart="129" />
    <vehicle id="right_22" type="typeWE" route="right" depart="132" />
    <vehicle id="up_23" type="typeNS" route="up" depart="135" />
    <vehicle id="left_24" type="typeWE" route="left" depart="147" />
    <vehicle id="down_25" type="typeNS" route="down" depart="149" />
    <vehicle id="left_26" type="typeWE" route="left" depart="159" />
    <vehicle id="right_27" type="typeWE" route="right" depart="171" />
    <vehicle id="down_28" type="typeNS" route="down" depart="220" />
    <vehicle id="right_29" type="typeWE" route="right" depart="239" />
    <vehicle id="down_30" type="typeNS" route="down" depart="241" />
    <vehicle id="up_31" type="typeNS" route="up" depart="248" />
    <vehicle id="left_32" type="typeWE" route="left" depart="253" />
    <vehicle id="down_33" type="typeNS" route="down" depart="256" />
    <vehicle id="left_34" type="typeWE" route="left" depart="258" />
    <vehicle id="down_35" type="typeNS" route="down" depart="258" />
    <vehicle id="left_36" type="typeWE" route="left" depart="281" />
    <vehicle id="left_37" type="typeWE" route="left" depart="283" />
    <vehicle id="up_38" type="typeNS" route="up" depart="284" />
    <vehicle id="right_39" type="typeWE" route="right" depart="292" />
    <vehicle id="down_40" type="typeNS" route="down" depart="293" />
    <vehicle id="left_41" type="typeWE" route="left" depart="296" />
    <vehicle id="left_42" type="typeWE" route="left" depart="298" />
    <vehicle id="left_43" type="typeWE" route="left" depart="343" />
    <vehicle id="up_44" type="typeNS" route="up" depart="344" />
    <vehicle id="up_45" type="typeNS" route="up" depart="347" />
    <vehicle id="right_46" type="typeWE" route="right" depart="352" />
    <vehicle id="left_47" type="typeWE" route="left" depart="357" />
    <vehicle id="right_48" type="typeWE" route="right" depart="389" />
    <vehicle id="right_49" type="typeWE" route="right" depart="402" />
    <vehicle id="left_50" type="typeWE" route="left" depart="414" />
    <vehicle id="left_51" type="typeWE" route="left" depart="430" />
    <vehicle id="up_52" type="typeNS" route="up" depart="433" />
    <vehicle id="down_53" type="typeNS" route="down" depart="434" />
    <vehicle id="up_54" type="typeNS" route="up" depart="451" />
    <vehicle id="right_55" type="typeWE" route="right" depart="459" />
    <vehicle id="down_56" type="typeNS" route="down" depart="468" />
    <vehicle id="up_57" type="typeNS" route="up" depart="484" />
    <vehicle id="left_58" type="typeWE" route="left" depart="490" />
    <vehicle id="down_59" type="typeNS" route="down" depart="490" />
    <vehicle id="down_60" type="typeNS" route="down" depart="494" />
    <vehicle id="down_61" type="typeNS" route="down" depart="512" />
    <vehicle id="right_62" type="typeWE" route="right" depart="528" />
    <vehicle id="right_63" type="typeWE" route="right" depart="530" />
    <vehicle id="down_64" type="typeNS" route="down" depart="530" />
    <vehicle id="down_65" type="typeNS" route="down" depart="531" />
    <vehicle id="left_66" type="typeWE" route="left" depart="538" />
    <vehicle id="right_67" type="typeWE" route="right" depart="543" />
    <vehicle id="left_68" type="typeWE" route="left" depart="550" />
    <vehicle id="left_69" type="typeWE" route="left" depart="555" />
    <vehicle id="down_70" type="typeNS" route="down" depart="557" />
    <vehicle id="down_71" type="typeNS" route="down" depart="582" />
    <vehicle id="down_72" type="typeNS" route="down" depart="585" />
    <vehicle id="up_73" type="typeNS" route="up" depart="593" />
    <vehicle id="down_74" type="typeNS" route="down" depart="606" />
    <vehicle id="left_75" type="typeWE" route="left" depart="609" />
    <vehicle id="right_76" type="typeWE" route="right" depart="629" />
    <vehicle id="up_77" type="typeNS" route="up" depart="635" />
    <vehicle id="up_78" type="typeNS" route="up" depart="640" />
    <vehicle id="right_79" type="typeWE" route="right" depart="642" />
    <vehicle id="up_80" type="typeNS" route="up" depart="646" />
    <vehicle id="left_81" type="typeWE" route="left" depart="659" />
    <vehicle id="up_82" type="typeNS" route="up" depart="671" />
    <vehicle id="up_83" type="typeNS" route="up" depart="683" />
    <vehicle id="right_84" type="typeWE" route="right" depart="687" />
    <vehicle id="up_85" type="typeNS" route="up" depart="688" />
    <vehicle id="left_86" type="typeWE" route="left" depart="704" />
    <vehicle id="left_87" type="typeWE" route="left" depart="706" />
    <vehicle id="right_88" type="typeWE" route="right" depart="709" />
    <vehicle id="down_89" type="typeNS" route="down" depart="712" />
    <vehicle id="left_90" type="typeWE" route="left" depart="727" />
    <vehicle id="right_91" type="typeWE" route="right" depart="731" />
    <vehicle id="right_92" type="typeWE" route="right" depart="733" />
    <vehicle id="up_93" type="typeNS" route="up" depart="741" />
    <vehicle id="down_94" type="typeNS" route="down" depart="747" />
    <vehicle id="up_95" type="typeNS" route="up" depart="754" />
    <vehicle id="up_96" type="typeNS" route="up" depart="760" />
    <vehicle id="left_97" type="typeWE" route="left" depart="785" />
    <vehicle id="down_98" type="typeNS" route="down" depart="792" />
    <vehicle id="up_99" type="typeNS" route="up" depart="795" />
    <vehicle id="right_100" type="typeWE" route="right" depart="801" />
    <vehicle id="up_101" type="typeNS" route="up" depart="801" />
    <vehicle id="up_102" type="typeNS" route="up" depart="802" />
    <vehicle id="left_103" type="typeWE" route="left" depart="828" />
    <vehicle id="left_104" type="typeWE" route="left" depart="832" />
    <vehicle id="left_105" type="typeWE" route="left" depart="843" />
    <vehicle id="down_106" type="typeNS" route="down" depart="851" />
    <vehicle id="left_107" type="typeWE" route="left" depart="865" />
    <vehicle id="left_108" type="typeWE" route="left" depart="879" />
    <vehicle id="right_109" type="typeWE" route="right" depart="906" />
    <vehicle id="right_110" type="typeWE" route="right" depart="909" />
    <vehicle id="up_111" type="typeNS" route="up" depart="913" />
    <vehicle id="right_112" type="typeWE" route="right" depart="928" />
    <vehicle id="up_113" type="typeNS" route="up" depart="934" />
    <vehicle id="down_114" type="typeNS" route="down" depart="941" />
    <vehicle id="left_115" type="typeWE" route="left" depart="950" />
    <vehicle id="right_116" type="typeWE" route="right" depart="961" />
    <vehicle id="up_117" type="typeNS" route="up" depart="966" />
    <vehicle id="left_118" type="typeWE" route="left" depart="967" />
    <vehicle id="left_119" type="typeWE" route="left" depart="988" />
    <vehicle id="down_120" type="typeNS" route="down" depart="991" />
    <vehicle id="left_121" type="typeWE" route="left" depart="1008" />
    <vehicle id="up_122" type="typeNS" route="up" depart="1017" />
    <vehicle id="left_123" type="typeWE" route="left" depart="1025" />
    <vehicle id="down_124" type="typeNS" route="down" depart="1035" />
    <vehicle id="right_125" type="typeWE" route="right" depart="1038" />
    <vehicle id="right_126" type="typeWE" route="right" depart="1052" />
    <vehicle id="right_127" type="typeWE" route="right" depart="1065" />
    <vehicle id="up_128" type="typeNS" route="up" depart="1074" />
    <vehicle id="down_129" type="typeNS" route="down" depart="1077" />
    <vehicle id="right_130" type="typeWE" route="right" depart="1081" />
    <vehicle id="down_131" type="typeNS" route="down" depart="1087" />
    <vehicle id="up_132" type="typeNS" route="up" depart="1088" />
    <vehicle id="up_133" type="typeNS" route="up" depart="1089" />
    <vehicle id="up_134" type="typeNS" route="up" depart="1090" />
    <vehicle id="up_135" type="typeNS" route="up" depart="1097" />
    <vehicle id="up_136" type="typeNS" route="up" depart="1112" />
    <vehicle id="left_137" type="typeWE" route="left" depart="1124" />
    <vehicle id="left_138" type="typeWE" route="left" depart="1125" />
    <vehicle id="left_139" type="typeWE" route="left" depart="1150" />
    <vehicle id="down_140" type="typeNS" route="down" depart="1160" />
    <vehicle id="up_141" type="typeNS" route="up" depart="1171" />
    <vehicle id="down_142" type="typeNS" route="down" depart="1176" />
    <vehicle id="down_143" type="typeNS" route="down" depart="1177" />
    <vehicle id="right_144" type="typeWE" route="right" depart="1180" />
    <vehicle id="down_145" type="typeNS" route="down" depart="1182" />
    <vehicle id="right_146" type="typeWE" route="right" depart="1184" />
    <vehicle id="down_147" type="typeNS" route="down" depart="1187" />
    <vehicle id="up_148" type="typeNS" route="up" depart="1191" />
    <vehicle id="right_149" type="typeWE" route="right" depart="1209" />
    <vehicle id="down_150" type="typeNS" route="down" depart="1209" />
    <vehicle id="left_151" type="typeWE" route="left" depart="1234" />
    <vehicle id="left_152" type="typeWE" route="left" depart="1252" />
    <vehicle id="down_153" type="typeNS" route="down" depart="1252" />
    <vehicle id="right_154" type="typeWE" route="right" depart="1255" />
    <vehicle id="up_155" type="typeNS" route="up" depart="1256" />
    <vehicle id="right_156" type="typeWE" route="right" depart="1258" />
    <vehicle id="right_157" type="typeWE" route="right" depart="1265" />
    <vehicle id="up_158" type="typeNS" route="up" depart="1267" />
    <vehicle id="right_159" type="typeWE" route="right" depart="1271" />
    <vehicle id="down_160" type="typeNS" route="down" depart="1275" />
    <vehicle id="up_161" type="typeNS" route="up" depart="1280" />
    <vehicle id="right_162" type="typeWE" route="right" depart="1294" />
    <vehicle id="right_163" type="typeWE" route="right" depart="1307" />
    <vehicle id="left_164" type="typeWE" route="left" depart="1311" />
    <vehicle id="right_165" type="typeWE" route="right" depart="1319" />
    <vehicle id="up_166" type="typeNS" route="up" depart="1338" />
    <vehicle id="up_167" type="typeNS" route="up" depart="1348" />
    <vehicle id="right_168" type="typeWE" route="right" depart="1356" />
    <vehicle id="up_169" type="typeNS" route="up" depart="1357" />
    <vehicle id="right_170" type="typeWE" route="right" depart="1375" />
    <vehicle id="right_171" type="typeWE" route="right" depart="1400" />
    <vehicle id="down_172" type="typeNS" route="down" depart="1400" />
    <vehicle id="right_173" type="typeWE" route="right" depart="1406" />
    <vehicle id="up_174" type="typeNS" route="up" depart="1428" />
    <vehicle id="right_175" type="typeWE" route="right" depart="1432" />
    <vehicle id="right_176" type="typeWE" route="right" depart="1435" />
    <vehicle id="left_177" type="typeWE" route="left" depart="1438" />
    <vehicle id="up_178" type="typeNS" route="up" depart="1469" />
    <vehicle id="left_179" type="typeWE" route="left" depart="1477" />
    <vehicle id="down_180" type="typeNS" route="down" depart="1491" />
    <vehicle id="up_181" type="typeNS" route="up" depart="1491" />
    <vehicle id="left_182" type="typeWE" route="left" depart="1505" />
    <vehicle id="right_183" type="typeWE" route="right" depart="1513" />
    <vehicle id="down_184" type="typeNS" route="down" depart="1523" />
    <vehicle id="up_185" type="typeNS" route="up" depart="1549" />
    <vehicle id="down_186" type="typeNS" route="down" depart="1551" />
    <vehicle id="down_187" type="typeNS" route="down" depart="1557" />
    <vehicle id="up_188" type="typeNS" route="up" depart="1558" />
    <vehicle id="down_189" type="typeNS" route="down" depart="1562" />
    <vehicle id="right_190" type="typeWE" route="right" depart="1576" />
    <vehicle id="down_191" type="typeNS" route="down" depart="1588" />
    <vehicle id="up_192" type="typeNS" route="up" depart="1600" />
    <vehicle id="left_193" type="typeWE" route="left" depart="1613" />
    <vehicle id="left_194" type="typeWE" route="left" depart="1632" />
    <vehicle id="right_195" type="typeWE" route="right" depart="1655" />
    <vehicle id="down_196" type="typeNS" route="down" depart="1658" />
    <vehicle id="up_197" type="typeNS" route="up" depart="1683" />
    <vehicle id="right_198" type="typeWE" route="right" depart="1688" />
    <vehicle id="down_199" type="typeNS" route="down" depart="1688" />
    <vehicle id="up_200" type="typeNS" route="up" depart="1691" />
    <vehicle id="up_201" type="typeNS" route="up" depart="1694" />
    <vehicle id="up_202" type="typeNS" route="up" depart="1701" />
    <vehicle id="left_203" type="typeWE" route="left" depart="1710" />
    <vehicle id="up_204" type="typeNS" route="up" depart="1711" />
    <vehicle id="right_205" type="typeWE" route="right" depart="1728" />
    <vehicle id="down_206" type="typeNS" route="down" depart="1728" />
    <vehicle id="down_207" type="typeNS" route="down" depart="1734" />
    <vehicle id="down_208" type="typeNS" route="down" depart="1741" />
    <vehicle id="right_209" type="typeWE" route="right" depart="1776" />
    <vehicle id="up_210" type="typeNS" route="up" depart="1778" />
    <vehicle id="right_211" type="typeWE" route="right" depart="1783" />
    <vehicle id="down_212" type="typeNS" route="down" depart="1793" />
    <vehicle id="up_213" type="typeNS" route="up" depart="1794" />
    <vehicle id="right_214" type="typeWE" route="right" depart="1803" />
    <vehicle id="up_215" type="typeNS" route="up" depart="1803" />
    <vehicle id="up_216" type="typeNS" route="up" depart="1806" />
    <vehicle id="down_217" type="typeNS" route="down" depart="1809" />
    <vehicle id="up_218" type="typeNS" route="up" depart="1810" />
    <vehicle id="down_219" type="typeNS" route="down" depart="1825" />
    <vehicle id="down_220" type="typeNS" route="down" depart="1826" />
    <vehicle id="up_221" type="typeNS" route="up" depart="1838" />
    <vehicle id="up_222" type="typeNS" route="up" depart="1847" />
    <vehicle id="down_223" type="typeNS" route="down" depart="1854" />
    <vehicle id="right_224" type="typeWE" route="right" depart="1858" />
    <vehicle id="up_225" type="typeNS" route="up" depart="1859" />
    <vehicle id="up_226" type="typeNS" route="up" depart="1861" />
    <vehicle id="down_227" type="typeNS" route="down" depart="1862" />
    <vehicle id="left_228" type="typeWE" route="left" depart="1889" />
    <vehicle id="down_229" type="typeNS" route="down" depart="1897" />
    <vehicle id="right_230" type="typeWE" route="right" depart="1900" />
    <vehicle id="down_231" type="typeNS" route="down" depart="1905" />
    <vehicle id="up_232" type="typeNS" route="up" depart="1913" />
    <vehicle id="right_233" type="typeWE" route="right" depart="1928" />
    <vehicle id="down_234" type="typeNS" route="down" depart="1931" />
    <vehicle id="left_235" type="typeWE" route="left" depart="1937" />
    <vehicle id="up_236" type="typeNS" route="up" depart="1960" />
    <vehicle id="left_237" type="typeWE" route="left" depart="1964" />
    <vehicle id="up_238" type="typeNS" route="up" depart="1972" />
    <vehicle id="left_239" type="typeWE" route="left" depart="1977" />
    <vehicle id="up_240" type="typeNS" route="up" depart="1987" />
    <vehicle id="down_241" type="typeNS" route="down" depart="1995" />
    <vehicle id="left_242" type="typeWE" route="left" depart="2004" />
    <vehicle id="down_243" type="typeNS" route="down" depart="2005" />
    <vehicle id="right_244" type="typeWE" route="right" depart="2015" />
    <vehicle id="right_245" type="typeWE" route="right" depart="2035" />
    <vehicle id="up_246" type="typeNS" route="up" depart="2054" />
    <vehicle id="right_247" type="typeWE" route="right" depart="2065" />
    <vehicle id="left_248" type="typeWE" route="left" depart="2069" />
    <vehicle id="right_249" type="typeWE" route="right" depart="2077" />
    <vehicle id="left_250" type="typeWE" route="left" depart="2089" />
    <vehicle id="down_251" type="typeNS" route="down" depart="2092" />
    <vehicle id="down_252" type="typeNS" route="down" depart="2099" />
    <vehicle id="up_253" type="typeNS" route="up" depart="2123" />
    <vehicle id="down_254" type="typeNS" route="down" depart="2136" />
    <vehicle id="left_255" type="typeWE" route="left" depart="2153" />
    <vehicle id="down_256" type="typeNS" route="down" depart="2164" />
    <vehicle id="up_257" type="typeNS" route="up" depart="2175" />
    <vehicle id="up_258" type="typeNS" route="up" depart="2187" />
    <vehicle id="up_259" type="typeNS" route="up" depart="2191" />
    <vehicle id="right_260" type="typeWE" route="right" depart="2194" />
    <vehicle id="left_261" type="typeWE" route="left" depart="2200" />
    <vehicle id="down_262" type="typeNS" route="down" depart="2209" />
    <vehicle id="left_263" type="typeWE" route="left" depart="2219" />
    <vehicle id="up_264" type="typeNS" route="up" depart="2219" />
    <vehicle id="right_265" type="typeWE" route="right" depart="2225" />
    <vehicle id="right_266" type="typeWE" route="right" depart="2227" />
    <vehicle id="up_267" type="typeNS" route="up" depart="2231" />
    <vehicle id="down_268" type="typeNS" route="down" depart="2232" />
    <vehicle id="left_269" type="typeWE" route="left" depart="2241" />
    <vehicle id="down_270" type="typeNS" route="down" depart="2243" />
    <vehicle id="up_271" type="typeNS" route="up" depart="2245" />
    <vehicle id="left_272" type="typeWE" route="left" depart="2269" />
    <vehicle id="right_273" type="typeWE" route="right" depart="2277" />
    <vehicle id="left_274" type="typeWE" route="left" depart="2286" />
    <vehicle id="left_275" type="typeWE" route="left" depart="2291" />
    <vehicle id="down_276" type="typeNS" route="down" depart="2295" />
    <vehicle id="right_277" type="typeWE" route="right" depart="2296" />
    <vehicle id="down_278" type="typeNS" route="down" depart="2305" />
    <vehicle id="left_279" type="typeWE" route="left" depart="2309" />
    <vehicle id="left_280" type="typeWE" route="left" depart="2312" />
    <vehicle id="up_281" type="typeNS" route="up" depart="2321" />
    <vehicle id="up_282" type="typeNS" route="up" depart="2330" />
    <vehicle id="left_283" type="typeWE" route="left" depart="2333" />
    <vehicle id="left_284" type="typeWE" route="left" depart="2334" />
    <vehicle id="up_285" type="typeNS" route="up" depart="2336" />
    <vehicle id="right_286" type="typeWE" route="right" depart="2337" />
    <vehicle id="right_287" type="typeWE" route="right" depart="2350" />
    <vehicle id="up_288" type="typeNS" route="up" depart="2352" />
    <vehicle id="up_289" type="typeNS" route="up" depart="2367" />
    <vehicle id="left_290" type="typeWE" route="left" depart="2368" />
    <vehicle id="right_291" type="typeWE" route="right" depart="2381" />
    <vehicle id="left_292" type="typeWE" route="left" depart="2389" />
    <vehicle id="down_293" type="typeNS" route="down" depart="2403" />
    <vehicle id="right_294" type="typeWE" route="right" depart="2411" />
    <vehicle id="up_295" type="typeNS" route="up" depart="2413" />
    <vehicle id="up_296" type="typeNS" route="up" depart="2425" />
    <vehicle id="up_297" type="typeNS" route="up" depart="2427" />
    <vehicle id="left_298" type="typeWE" route="left" depart="2440" />
    <vehicle id="left_299" type="typeWE" route="left" depart="2444" />
    <vehicle id="left_300" type="typeWE" route="left" depart="2451" />
    <vehicle id="left_301" type="typeWE" route="left" depart="2452" />
    <vehicle id="up_302" type="typeNS" route="up" depart="2461" />
    <vehicle id="down_303" type="typeNS" route="down" depart="2462" />
    <vehicle id="up_304" type="typeNS" route="up" depart="2496" />
    <vehicle id="left_305" type="typeWE" route="left" depart="2505" />
    <vehicle id="up_306" type="typeNS" route="up" depart="2512" />
    <vehicle id="right_307" type="typeWE" route="right" depart="2530" />
    <vehicle id="down_308" type="typeNS" route="down" depart="2537" />
    <vehicle id="up_309" type="typeNS" route="up" depart="2557" />
    <vehicle id="left_310" type="typeWE" route="left" depart="2560" />
    <vehicle id="right_311" type="typeWE" route="right" depart="2575" />
    <vehicle id="right_312" type="typeWE" route="right" depart="2596" />
    <vehicle id="left_313" type="typeWE" route="left" depart="2597" />
    <vehicle id="up_314" type="typeNS" route="up" depart="2597" />
    <vehicle id="up_315" type="typeNS" route="up" depart="2607" />
    <vehicle id="down_316" type="typeNS" route="down" depart="2611" />
    <vehicle id="left_317" type="typeWE" route="left" depart="2628" />
    <vehicle id="right_318" type="typeWE" route="right" depart="2634" />
    <vehicle id="down_319" type="typeNS" route="down" depart="2639" />
    <vehicle id="left_320" type="typeWE" route="left" depart="2642" />
    <vehicle id="up_321" type="typeNS" route="up" depart="2645" />
    <vehicle id="down_322" type="typeNS" route="down" depart="2654" />
    <vehicle id="right_323" type="typeWE" route="right" depart="2668" />
    <vehicle id="up_324" type="typeNS" route="up" depart="2688" />
    <vehicle id="up_325" type="typeNS" route="up" depart="2691" />
    <vehicle id="down_326" type="typeNS" route="down" depart="2692" />
    <vehicle id="right_327" type="typeWE" route="right" depart="2699" />
    <vehicle id="right_328" type="typeWE" route="right" depart="2703" />
    <vehicle id="left_329" type="typeWE" route="left" depart="2709" />
    <vehicle id="left_330" type="typeWE" route="left" depart="2725" />
    <vehicle id="down_331" type="typeNS" route="down" depart="2728" />
    <vehicle id="up_332" type="typeNS" route="up" depart="2730" />
    <vehicle id="right_333" type="typeWE" route="right" depart="2736" />
    <vehicle id="down_334" type="typeNS" route="down" depart="2740" />
    <vehicle id="down_335" type="typeNS" route="down" depart="2757" />
    <vehicle id="left_336" type="typeWE" route="left" depart="2769" />
    <vehicle id="up_337" type="typeNS" route="up" depart="2777" />
    <vehicle id="up_338" type="typeNS" route="up" depart="2784" />
    <vehicle id="up_339" type="typeNS" route="up" depart="2786" />
    <vehicle id="down_340" type="typeNS" route="down" depart="2789" />
    <vehicle id="right_341" type="typeWE" route="right" depart="2792" />
    <vehicle id="right_342" type="typeWE" route="right" depart="2795" />
    <vehicle id="down_343" type="typeNS" route="down" depart="2796" />
    <vehicle id="down_344" type="typeNS" route="down" depart="2819" />
    <vehicle id="up_345" type="typeNS" route="up" depart="2819" />
    <vehicle id="right_346" type="typeWE" route="right" depart="2823" />
    <vehicle id="right_347" type="typeWE" route="right" depart="2837" />
    <vehicle id="down_348" type="typeNS" route="down" depart="2842" />
    <vehicle id="right_349" type="typeWE" route="right" depart="2861" />
    <vehicle id="right_350" type="typeWE" route="right" depart="2879" />
    <vehicle id="up_351" type="typeNS" route="up" depart="2891" />
    <vehicle id="left_352" type="typeWE" route="left" depart="2896" />
    <vehicle id="down_353" type="typeNS" route="down" depart="2898" />
    <vehicle id="right_354" type="typeWE" route="right" depart="2899" />
    <vehicle id="left_355" type="typeWE" route="left" depart="2907" />
    <vehicle id="up_356" type="typeNS" route="up" depart="2907" />
    <vehicle id="left_357" type="typeWE" route="left" depart="2908" />
    <vehicle id="up_358" type="typeNS" route="up" depart="2912" />
    <vehicle id="up_359" type="typeNS" route="up" depart="2924" />
    <vehicle id="down_360" type="typeNS" route="down" depart="2939" />
    <vehicle id="right_361" type="typeWE" route="right" depart="2966" />
    <vehicle id="left_362" type="typeWE" route="left" depart="2974" />
    <vehicle id="right_363" type="typeWE" route="right" depart="2982" />
    <vehicle id="down_364" type="typeNS" route="down" depart="3003" />
    <vehicle id="right_365" type="typeWE" route="right" depart="3004" />
    <vehicle id="up_366" type="typeNS" route="up" depart="3025" />
    <vehicle id="left_367" type="typeWE" route="left" depart="3026" />
    <vehicle id="up_368" type="typeNS" route="up" depart="3045" />
    <vehicle id="up_369" type="typeNS" route="up" depart="3055" />
    <vehicle id="up_370" type="typeNS" route="up" depart="3057" />
    <vehicle id="left_371" type="typeWE" route="left" depart="3058" />
    <vehicle id="left_372" type="typeWE" route="left" depart="3063" />
    <vehicle id="down_373" type="typeNS" route="down" depart="3076" />
    <vehicle id="down_374" type="typeNS" route="down" depart="3086" />
    <vehicle id="up_375" type="typeNS" route="up" depart="3087" />
    <vehicle id="up_376" type="typeNS" route="up" depart="3123" />
    <vehicle id="down_377" type="typeNS" route="down" depart="3141" />
    <vehicle id="left_378" type="typeWE" route="left" depart="3151" />
    <vehicle id="left_379" type="typeWE" route="left" depart="3158" />
    <vehicle id="up_380" type="typeNS" route="up" depart="3164" />
    <vehicle id="left_381" type="typeWE" route="left" depart="3173" />
    <vehicle id="down_382" type="typeNS" route="down" depart="3173" />
    <vehicle id="right_383" type="typeWE" route="right" depart="3178" />
    <vehicle id="left_384" type="typeWE" route="left" depart="3182" />
    <vehicle id="right_385" type="typeWE" route="right" depart="3191" />
    <vehicle id="left_386" type="typeWE" route="left" depart="3199" />
    <vehicle id="up_387" type="typeNS" route="up" depart="3200" />
    <vehicle id="left_388" type="typeWE" route="left" depart="3203" />
    <vehicle id="up_389" type="typeNS" route="up" depart="3208" />
    <vehicle id="down_390" type="typeNS" route="down" depart="3218" />
    <vehicle id="right_391" type="typeWE" route="right" depart="3229" />
    <vehicle id="up_392" type="typeNS" route="up" depart="3229" />
    <vehicle id="right_393" type="typeWE" route="right" depart="3249" />
    <vehicle id="down_394" type="typeNS" route="down" depart="3251" />
    <vehicle id="up_395" type="typeNS" route="up" depart="3256" />
    <vehicle id="left_396" type="typeWE" route="left" depart="3267" />
    <vehicle id="down_397" type="typeNS" route="down" depart="3267" />
    <vehicle id="right_398" type="typeWE" route="right" depart="3268" />
    <vehicle id="down_399" type="typeNS" route="down" depart="3268" />
    <vehicle id="up_400" type="typeNS" route="up" depart="3276" />
    <vehicle id="down_401" type="typeNS" route="down" depart="3279" />
    <vehicle id="down_402" type="typeNS" route="down" depart="3303" />
    <vehicle id="up_403" type="typeNS" route="up" depart="3306" />
    <vehicle id="right_404" type="typeWE" route="right" depart="3307" />
    <vehicle id="right_405" type="typeWE" route="right" depart="3312" />
    <vehicle id="down_406" type="typeNS" route="down" depart="3312" />
    <vehicle id="left_407" type="typeWE" route="left" depart="3315" />
    <vehicle id="left_408" type="typeWE" route="left" depart="3320" />
    <vehicle id="up_409" type="typeNS" route="up" depart="3326" />
    <vehicle id="left_410" type="typeWE" route="left" depart="3332" />
    <vehicle id="up_411" type="typeNS" route="up" depart="3340" />
    <vehicle id="left_412" type="typeWE" route="left" depart="3342" />
    <vehicle id="left_413" type="typeWE" route="left" depart="3350" />
    <vehicle id="up_414" type="typeNS" route="up" depart="3354" />
    <vehicle id="up_415" type="typeNS" route="up" depart="3374" />
    <vehicle id="down_416" type="typeNS" route="down" depart="3382" />
    <vehicle id="down_417" type="typeNS" route="down" depart="3400" />
    <vehicle id="down_418" type="typeNS" route="down" depart="3417" />
    <vehicle id="down_419" type="typeNS" route="down" depart="3418" />
    <vehicle id="left_420" type="typeWE" route="left" depart="3423" />
    <vehicle id="up_421" type="typeNS" route="up" depart="3430" />
    <vehicle id="left_422" type="typeWE" route="left" depart="3433" />