<routes>
        <vType id="typeWE" accel="0.8" decel="4.5" sigma="0.5" length="5" minGap="2.5" maxSpeed="16.67" guiShape="passenger"/>
        <vType id="typeNS" accel="0.8" decel="4.5" sigma="0.5" length="5" minGap="2.5" maxSpeed="16.67" guiShape="passenger"/>

        <route id="right" edges="51o 1i 2o 52i" />
        <route id="left" edges="52o 2i 1o 51i" />
        <route id="down" edges="54o 4i 3o 53i" />
        <route id="up" edges="53o 3i 4o 54i" /> 
    <vehicle id="left_0" type="typeWE" route="left" depart="0" />
    <vehicle id="left_1" type="typeWE" route="left" depart="2" />
    <vehicle id="right_2" type="typeWE" route="right" depart="3" />
    <vehicle id="up_3" type="typeNS" route="up" depart="4" />
    <vehicle id="left_4" type="typeWE" route="left" depart="10" />
    <vehicle id="right_5" type="typeWE" route="right" depart="11" />
    <vehicle id="up_6" type="typeNS" route="up" depart="16" />
    <vehicle id="left_7" type="typeWE" route="left" depart="22" />
    <vehicle id="down_8" type="typeNS" route="down" depart="23" />
    <vehicle id="right_9" type="typeWE" route="right" depart="25" />
    <vehicle id="right_10" type="typeWE" route="right" depart="31" />
    <vehicle id="down_11" type="typeNS" route="down" depart="31" />
    <vehicle id="up_12" type="typeNS" route="up" depart="32" />
    <vehicle id="right_13" type="typeWE" route="right" depart="34" />
    <vehicle id="right_14" type="typeWE" route="right" depart="40" />
    <vehicle id="left_15" type="typeWE" route="left" depart="41" />
    <vehicle id="left_16" type="typeWE" route="left" depart="49" />
    <vehicle id="up_17" type="typeNS" route="up" depart="51" />
    <vehicle id="right_18" type="typeWE" route="right" depart="56" />
    <vehicle id="right_19" type="typeWE" route="right" depart="63" />
    <vehicle id="right_20" type="typeWE" route="right" depart="64" />
    <vehicle id="left_21" type="typeWE" route="left" depart="67" />
    <vehicle id="down_22" type="typeNS" route="down" depart="72" />
    <vehicle id="left_23" type="typeWE" route="left" depart="74" />
    <vehicle id="right_24" type="typeWE" route="right" depart="81" />
    <vehicle id="down_25" type="typeNS" route="down" depart="85" />
    <vehicle id="right_26" type="typeWE" route="right" depart="92" />
    <vehicle id="up_27" type="typeNS" route="up" depart="93" />
    <vehicle id="down_28" type="typeNS" route="down" depart="98" />
    <vehicle id="up_29" type="typeNS" route="up" depart="103" />
    <vehicle id="up_30" type="typeNS" route="up" depart="104" />
    <vehicle id="up_31" type="typeNS" route="up" depart="106" />
    <vehicle id="up_32" type="typeNS" route="up" depart="108" />
    <vehicle id="right_33" type="typeWE" route="right" depart="115" />
    <vehicle id="left_34" type="typeWE" route="left" depart="117" />
    <vehicle id="left_35" type="typeWE" route="left" depart="120" />
    <vehicle id="left_36" type="typeWE" route="left" depart="123" />
    <vehicle id="left_37" type="typeWE" route="left" depart="125" />
    <vehicle id="right_38" type="typeWE" route="right" depart="126" />
    <vehicle id="right_39" type="typeWE" route="right" depart="127" />
    <vehicle id="left_40" type="typeWE" route="left" depart="129" />
    <vehicle id="down_41" type="typeNS" route="down" depart="129" />
    <vehicle id="right_42" type="typeWE" route="right" depart="132" />
    <vehicle id="up_43" type="typeNS" route="up" depart="135" />
    <vehicle id="left_44" type="typeWE" route="left" depart="137" />
    <vehicle id="left_45" type="typeWE" route="left" depart="147" />
    <vehicle id="down_46" type="typeNS" route="down" depart="149" />
    <vehicle id="left_47" type="typeWE" route="left" depart="159" />
    <vehicle id="up_48" type="typeNS" route="up" depart="162" />
    <vehicle id="right_49" type="typeWE" route="right" depart="164" />
    <vehicle id="down_50" type="typeNS" route="down" depart="164" />
    <vehicle id="up_51" type="typeNS" route="up" depart="170" />
    <vehicle id="right_52" type="typeWE" route="right" depart="171" />
    <vehicle id="up_53" type="typeNS" route="up" depart="175" />
    <vehicle id="right_54" type="typeWE" route="right" depart="179" />
    <vehicle id="right_55" type="typeWE" route="right" depart="182" />
    <vehicle id="left_56" type="typeWE" route="left" depart="204" />
    <vehicle id="down_57" type="typeNS" route="down" depart="206" />
    <vehicle id="up_58" type="typeNS" route="up" depart="212" />
    <vehicle id="right_59" type="typeWE" route="right" depart="213" />
    <vehicle id="right_60" type="typeWE" route="right" depart="216" />
    <vehicle id="left_61" type="typeWE" route="left" depart="218" />
    <vehicle id="down_62" type="typeNS" route="down" depart="220" />
    <vehicle id="right_63" type="typeWE" route="right" depart="227" />
    <vehicle id="right_64" type="typeWE" route="right" depart="239" />
    <vehicle id="down_65" type="typeNS" route="down" depart="241" />
    <vehicle id="up_66" type="typeNS" route="up" depart="242" />
    <vehicle id="up_67" type="typeNS" route="up" depart="248" />
    <vehicle id="left_68" type="typeWE" route="left" depart="253" />
    <vehicle id="down_69" type="typeNS" route="down" depart="256" />
    <vehicle id="left_70" type="typeWE" route="left" depart="258" />
    <vehicle id="down_71" type="typeNS" route="down" depart="258" />
    <vehicle id="up_72" type="typeNS" route="up" depart="259" />
    <vehicle id="left_73" type="typeWE" route="left" depart="262" />
    <vehicle id="up_74" type="typeNS" route="up" depart="263" />
    <vehicle id="left_75" type="typeWE" route="left" depart="265" />
    <vehicle id="right_76" type="typeWE" route="right" depart="266" />
    <vehicle id="up_77" type="typeNS" route="up" depart="272" />
    <vehicle id="left_78" type="typeWE" route="left" depart="281" />
    <vehicle id="left_79" type="typeWE" route="left" depart="283" />
    <vehicle id="up_80" type="typeNS" route="up" depart="284" />
    <vehicle id="left_81" type="typeWE" route="left" depart="287" />
    <vehicle id="left_82" type="typeWE" route="left" depart="291" />
    <vehicle id="right_83" type="typeWE" route="right" depart="292" />
    <vehicle id="down_84" type="typeNS" route="down" depart="293" />
    <vehicle id="right_85" type="typeWE" route="right" depart="296" />
    <vehicle id="left_86" type="typeWE" route="left" depart="296" />
    <vehicle id="left_87" type="typeWE" route="left" depart="298" />
    <vehicle id="right_88" type="typeWE" route="right" depart="309" />
    <vehicle id="right_89" type="typeWE" route="right" depart="310" />
    <vehicle id="right_90" type="typeWE" route="right" depart="311" />
    <vehicle id="left_91" type="typeWE" route="left" depart="315" />
    <vehicle id="right_92" type="typeWE" route="right" depart="320" />
    <vehicle id="right_93" type="typeWE" route="right" depart="329" />
    <vehicle id="down_94" type="typeNS" route="down" depart="330" />
    <vehicle id="left_95" type="typeWE" route="left" depart="343" />
    <vehicle id="down_96" type="typeNS" route="down" depart="343" />
    <vehicle id="up_97" type="typeNS" route="up" depart="344" />
    <vehicle id="up_98" type="typeNS" route="up" depart="347" />
    <vehicle id="right_99" type="typeWE" route="right" depart="348" />
    <vehicle id="left_100" type="typeWE" route="left" depart="350" />
    <vehicle id="right_101" type="typeWE" route="right" depart="352" />
    <vehicle id="up_102" type="typeNS" route="up" depart="354" />
    <vehicle id="left_103" type="typeWE" route="left" depart="357" />
    <vehicle id="left_104" type="typeWE" route="left" depart="359" />
    <vehicle id="down_105" type="typeNS" route="down" depart="361" />
    <vehicle id="down_106" type="typeNS" route="down" depart="362" />
    <vehicle id="right_107" type="typeWE" route="right" depart="363" />
    <vehicle id="left_108" type="typeWE" route="left" depart="369" />
    <vehicle id="left_109" type="typeWE" route="left" depart="372" />
    <vehicle id="right_110" type="typeWE" route="right" depart="374" />
    <vehicle id="left_111" type="typeWE" route="left" depart="376" />
    <vehicle id="up_112" type="typeNS" route="up" depart="385" />
    <vehicle id="right_113" type="typeWE" route="right" depart="389" />
    <vehicle id="left_114" type="typeWE" route="left" depart="392" />
    <vehicle id="down_115" type="typeNS" route="down" depart="395" />
    <vehicle id="right_116" type="typeWE" route="right" depart="402" />
    <vehicle id="left_117" type="typeWE" route="left" depart="402" />
    <vehicle id="right_118" type="typeWE" route="right" depart="406" />
    <vehicle id="left_119" type="typeWE" route="left" depart="406" />
    <vehicle id="left_120" type="typeWE" route="left" depart="414" />
    <vehicle id="up_121" type="typeNS" route="up" depart="415" />
    <vehicle id="up_122" type="typeNS" route="up" depart="419" />
    <vehicle id="up_123" type="typeNS" route="up" depart="423" />
    <vehicle id="left_124" type="typeWE" route="left" depart="430" />
    <vehicle id="up_125" type="typeNS" route="up" depart="433" />
    <vehicle id="down_126" type="typeNS" route="down" depart="434" />
    <vehicle id="up_127" type="typeNS" route="up" depart="436" />
    <vehicle id="down_128" type="typeNS" route="down" depart="450" />
    <vehicle id="up_129" type="typeNS" route="up" depart="451" />
    <vehicle id="right_130" type="typeWE" route="right" depart="459" />
    <vehicle id="down_131" type="typeNS" route="down" depart="468" />
    <vehicle id="left_132" type="typeWE" route="left" depart="469" />
    <vehicle id="right_133" type="typeWE" route="right" depart="477" />
    <vehicle id="right_134" type="typeWE" route="right" depart="481" />
    <vehicle id="right_135" type="typeWE" route="right" depart="483" />
    <vehicle id="down_136" type="typeNS" route="down" depart="483" />
    <vehicle id="left_137" type="typeWE" route="left" depart="484" />
    <vehicle id="up_138" type="typeNS" route="up" depart="484" />
    <vehicle id="left_139" type="typeWE" route="left" depart="490" />
    <vehicle id="down_140" type="typeNS" route="down" depart="490" />
    <vehicle id="down_141" type="typeNS" route="down" depart="494" />
    <vehicle id="left_142" type="typeWE" route="left" depart="495" />
    <vehicle id="right_143" type="typeWE" route="right" depart="496" />
    <vehicle id="down_144" type="typeNS" route="down" depart="497" />
    <vehicle id="right_145" type="typeWE" route="right" depart="501" />
    <vehicle id="down_146" type="typeNS" route="down" depart="512" />
    <vehicle id="down_147" type="typeNS" route="down" depart="525" />
    <vehicle id="up_148" type="typeNS" route="up" depart="525" />
    <vehicle id="right_149" type="typeWE" route="right" depart="528" />
    <vehicle id="right_150" type="typeWE" route="right" depart="530" />
    <vehicle id="down_151" type="typeNS" route="down" depart="530" />
    <vehicle id="down_152" type="typeNS" route="down" depart="531" />
    <vehicle id="right_153" type="typeWE" route="right" depart="538" />
    <vehicle id="left_154" type="typeWE" route="left" depart="538" />
    <vehicle id="down_155" type="typeNS" route="down" depart="540" />
    <vehicle id="up_156" type="typeNS" route="up" depart="541" />
    <vehicle id="right_157" type="typeWE" route="right" depart="542" />
    <vehicle id="right_158" type="typeWE" route="right" depart="543" />
    <vehicle id="right_159" type="typeWE" route="right" depart="545" />
    <vehicle id="left_160" type="typeWE" route="left" depart="548" />
    <vehicle id="left_161" type="typeWE" route="left" depart="550" />
    <vehicle id="left_162" type="typeWE" route="left" depart="555" />
    <vehicle id="down_163" type="typeNS" route="down" depart="557" />
    <vehicle id="right_164" type="typeWE" route="right" depart="562" />
    <vehicle id="right_165" type="typeWE" route="right" depart="563" />
    <vehicle id="left_166" type="typeWE" route="left" depart="576" />
    <vehicle id="up_167" type="typeNS" route="up" depart="580" />
    <vehicle id="down_168" type="typeNS" route="down" depart="582" />
    <vehicle id="down_169" type="typeNS" route="down" depart="585" />
    <vehicle id="up_170" type="typeNS" route="up" depart="593" />
    <vehicle id="right_171" type="typeWE" route="right" depart="596" />
    <vehicle id="right_172" type="typeWE" route="right" depart="606" />
    <vehicle id="down_173" type="typeNS" route="down" depart="606" />
    <vehicle id="right_174" type="typeWE" route="right" depart="609" />
    <vehicle id="left_175" type="typeWE" route="left" depart="609" />
    <vehicle id="left_176" type="typeWE" route="left" depart="613" />
    <vehicle id="down_177" type="typeNS" route="down" depart="619" />
    <vehicle id="right_178" type="typeWE" route="right" depart="629" />
    <vehicle id="up_179" type="typeNS" route="up" depart="630" />
    <vehicle id="right_180" type="typeWE" route="right" depart="634" />
    <vehicle id="up_181" type="typeNS" route="up" depart="635" />
    <vehicle id="up_182" type="typeNS" route="up" depart="640" />
    <vehicle id="right_183" type="typeWE" route="right" depart="642" />
    <vehicle id="up_184" type="typeNS" route="up" depart="646" />
    <vehicle id="down_185" type="typeNS" route="down" depart="654" />
    <vehicle id="left_186" type="typeWE" route="left" depart="659" />
    <vehicle id="right_187" type="typeWE" route="right" depart="660" />
    <vehicle id="left_188" type="typeWE" route="left" depart="660" />
    <vehicle id="right_189" type="typeWE" route="right" depart="662" />
    <vehicle id="left_190" type="typeWE" route="left" depart="665" />
    <vehicle id="left_191" type="typeWE" route="left" depart="666" />
    <vehicle id="up_192" type="typeNS" route="up" depart="671" />
    <vehicle id="down_193" type="typeNS" route="down" depart="672" />
    <vehicle id="left_194" type="typeWE" route="left" depart="673" />
    <vehicle id="left_195" type="typeWE" route="left" depart="676" />
    <vehicle id="left_196" type="typeWE" route="left" depart="680" />
    <vehicle id="left_197" type="typeWE" route="left" depart="682" />
    <vehicle id="up_198" type="typeNS" route="up" depart="683" />
    <vehicle id="right_199" type="typeWE" route="right" depart="687" />
    <vehicle id="up_200" type="typeNS" route="up" depart="688" />
    <vehicle id="up_201" type="typeNS" route="up" depart="690" />
    <vehicle id="left_202" type="typeWE" route="left" depart="694" />
    <vehicle id="left_203" type="typeWE" route="left" depart="697" />
    <vehicle id="up_204" type="typeNS" route="up" depart="701" />
    <vehicle id="left_205" type="typeWE" route="left" depart="704" />
    <vehicle id="left_206" type="typeWE" route="left" depart="706" />
    <vehicle id="right_207" type="typeWE" route="right" depart="709" />
    <vehicle id="left_208" type="typeWE" route="left" depart="709" />
    <vehicle id="right_209" type="typeWE" route="right" depart="711" />
    <vehicle id="down_210" type="typeNS" route="down" depart="712" />
    <vehicle id="left_211" type="typeWE" route="left" depart="714" />
    <vehicle id="up_212" type="typeNS" route="up" depart="715" />
    <vehicle id="left_213" type="typeWE" route="left" depart="721" />
    <vehicle id="right_214" type="typeWE" route="right" depart="724" />
    <vehicle id="left_215" type="typeWE" route="left" depart="727" />
    <vehicle id="right_216" type="typeWE" route="right" depart="731" />
    <vehicle id="right_217" type="typeWE" route="right" depart="733" />
    <vehicle id="up_218" type="typeNS" route="up" depart="741" />
    <vehicle id="up_219" type="typeNS" route="up" depart="746" />
    <vehicle id="down_220" type="typeNS" route="down" depart="747" />
    <vehicle id="right_221" type="typeWE" route="right" depart="751" />
    <vehicle id="left_222" type="typeWE" route="left" depart="752" />
    <vehicle id="up_223" type="typeNS" route="up" depart="754" />
    <vehicle id="left_224" type="typeWE" route="left" depart="758" />
    <vehicle id="up_225" type="typeNS" route="up" depart="760" />
    <vehicle id="down_226" type="typeNS" route="down" depart="765" />
    <vehicle id="up_227" type="typeNS" route="up" depart="775" />
    <vehicle id="left_228" type="typeWE" route="left" depart="782" />
    <vehicle id="down_229" type="typeNS" route="down" depart="783" />
    <vehicle id="left_230" type="typeWE" route="left" depart="785" />
    <vehicle id="down_231" type="typeNS" route="down" depart="792" />
    <vehicle id="up_232" type="typeNS" route="up" depart="795" />
    <vehicle id="right_233" type="typeWE" route="right" depart="801" />
    <vehicle id="up_234" type="typeNS" route="up" depart="801" />
    <vehicle id="up_235" type="typeNS" route="up" depart="802" />
    <vehicle id="down_236" type="typeNS" route="down" depart="808" />
    <vehicle id="right_237" type="typeWE" route="right" depart="814" />
    <vehicle id="right_238" type="typeWE" route="right" depart="823" />
    <vehicle id="down_239" type="typeNS" route="down" depart="824" />
    <vehicle id="left_240" type="typeWE" route="left" depart="828" />
    <vehicle id="down_241" type="typeNS" route="down" depart="831" />
    <vehicle id="left_242" type="typeWE" route="left" depart="832" />
    <vehicle id="left_243" type="typeWE" route="left" depart="841" />
    <vehicle id="left_244" type="typeWE" route="left" depart="842" />
    <vehicle id="left_245" type="typeWE" route="left" depart="843" />
    <vehicle id="left_246" type="typeWE" route="left" depart="850" />
    <vehicle id="down_247" type="typeNS" route="down" depart="851" />
    <vehicle id="up_248" type="typeNS" route="up" depart="855" />
    <vehicle id="down_249" type="typeNS" route="down" depart="857" />
    <vehicle id="up_250" type="typeNS" route="up" depart="862" />
    <vehicle id="left_251" type="typeWE" route="left" depart="865" />
    <vehicle id="left_252" type="typeWE" route="left" depart="867" />
    <vehicle id="up_253" type="typeNS" route="up" depart="872" />
    <vehicle id="left_254" type="typeWE" route="left" depart="874" />
    <vehicle id="left_255" type="typeWE" route="left" depart="875" />
    <vehicle id="left_256" type="typeWE" route="left" depart="879" />
    <vehicle id="up_257" type="typeNS" route="up" depart="881" />
    <vehicle id="right_258" type="typeWE" route="right" depart="886" />
    <vehicle id="left_259" type="typeWE" route="left" depart="892" />
    <vehicle id="right_260" type="typeWE" route="right" depart="906" />
    <vehicle id="right_261" type="typeWE" route="right" depart="909" />
    <vehicle id="up_262" type="typeNS" route="up" depart="913" />
    <vehicle id="down_263" type="typeNS" route="down" depart="921" />
    <vehicle id="left_264" type="typeWE" route="left" depart="924" />
    <vehicle id="right_265" type="typeWE" route="right" depart="928" />
    <vehicle id="up_266" type="typeNS" route="up" depart="932" />
    <vehicle id="up_267" type="typeNS" route="up" depart="934" />
    <vehicle id="right_268" type="typeWE" route="right" depart="935" />
    <vehicle id="left_269" type="typeWE" route="left" depart="939" />
    <vehicle id="down_270" type="typeNS" route="down" depart="941" />
    <vehicle id="left_271" type="typeWE" route="left" depart="950" />
    <vehicle id="left_272" type="typeWE" route="left" depart="956" />
    <vehicle id="right_273" type="typeWE" route="right" depart="961" />
    <vehicle id="left_274" type="typeWE" route="left" depart="966" />
    <vehicle id="up_275" type="typeNS" route="up" depart="966" />
    <vehicle id="left_276" type="typeWE" route="left" depart="967" />
    <vehicle id="right_277" type="typeWE" route="right" depart="976" />
    <vehicle id="down_278" type="typeNS" route="down" depart="976" />
    <vehicle id="right_279" type="typeWE" route="right" depart="978" />
    <vehicle id="left_280" type="typeWE" route="left" depart="988" />
    <vehicle id="down_281" type="typeNS" route="down" depart="988" />
    <vehicle id="down_282" type="typeNS" route="down" depart="989" />
    <vehicle id="right_283" type="typeWE" route="right" depart="990" />
    <vehicle id="down_284" type="typeNS" route="down" depart="991" />
    <vehicle id="left_285" type="typeWE" route="left" depart="999" />
    <vehicle id="down_286" type="typeNS" route="down" depart="1002" />
    <vehicle id="left_287" type="typeWE" route="left" depart="1008" />
    <vehicle id="up_288" type="typeNS" route="up" depart="1017" />
    <vehicle id="right_289" type="typeWE" route="right" depart="1019" />
    <vehicle id="up_290" type="typeNS" route="up" depart="1019" />
    <vehicle id="down_291" type="typeNS" route="down" depart="1023" />
    <vehicle id="up_292" type="typeNS" route="up" depart="1024" />
    <vehicle id="left_293" type="typeWE" route="left" depart="1025" />
    <vehicle id="left_294" type="typeWE" route="left" depart="1031" />
    <vehicle id="down_295" type="typeNS" route="down" depart="1035" />
    <vehicle id="right_296" type="typeWE" route="right" depart="1036" />
    <vehicle id="right_297" type="typeWE" route="right" depart="1038" />
    <vehicle id="up_298" type="typeNS" route="up" depart="1045" />
    <vehicle id="right_299" type="typeWE" route="right" depart="1049" />
    <vehicle id="right_300" type="typeWE" route="right" depart="1052" />
    <vehicle id="down_301" type="typeNS" route="down" depart="1062" />
    <vehicle id="right_302" type="typeWE" route="right" depart="1065" />
    <vehicle id="right_303" type="typeWE" route="right" depart="1071" />
    <vehicle id="up_304" type="typeNS" route="up" depart="1074" />
    <vehicle id="right_305" type="typeWE" route="right" depart="1076" />
    <vehicle id="up_306" type="typeNS" route="up" depart="1076" />
    <vehicle id="down_307" type="typeNS" route="down" depart="1077" />
    <vehicle id="left_308" type="typeWE" route="left" depart="1078" />
    <vehicle id="right_309" type="typeWE" route="right" depart="1081" />
    <vehicle id="down_310" type="typeNS" route="down" depart="1087" />
    <vehicle id="up_311" type="typeNS" route="up" depart="1088" />
    <vehicle id="up_312" type="typeNS" route="up" depart="1089" />
    <vehicle id="up_313" type="typeNS" route="up" depart="1090" />
    <vehicle id="up_314" type="typeNS" route="up" depart="1097" />
    <vehicle id="right_315" type="typeWE" route="right" depart="1098" />
    <vehicle id="up_316" type="typeNS" route="up" depart="1102" />
    <vehicle id="left_317" type="typeWE" route="left" depart="1103" />
    <vehicle id="left_318" type="typeWE" route="left" depart="1106" />
    <vehicle id="up_319" type="typeNS" route="up" depart="1108" />
    <vehicle id="up_320" type="typeNS" route="up" depart="1112" />
    <vehicle id="right_321" type="typeWE" route="right" depart="1113" />
    <vehicle id="right_322" type="typeWE" route="right" depart="1116" />
    <vehicle id="right_323" type="typeWE" route="right" depart="1123" />
    <vehicle id="left_324" type="typeWE" route="left" depart="1124" />
    <vehicle id="left_325" type="typeWE" route="left" depart="1125" />
    <vehicle id="left_326" type="typeWE" route="left" depart="1129" />
    <vehicle id="right_327" type="typeWE" route="right" depart="1133" />
    <vehicle id="left_328" type="typeWE" route="left" depart="1134" />
    <vehicle id="up_329" type="typeNS" route="up" depart="1134" />
    <vehicle id="up_330" type="typeNS" route="up" depart="1136" />
    <vehicle id="right_331" type="typeWE" route="right" depart="1137" />
    <vehicle id="left_332" type="typeWE" route="left" depart="1150" />
    <vehicle id="left_333" type="typeWE" route="left" depart="1152" />
    <vehicle id="right_334" type="typeWE" route="right" depart="1158" />
    <vehicle id="down_335" type="typeNS" route="down" depart="1160" />
    <vehicle id="down_336" type="typeNS" route="down" depart="1161" />
    <vehicle id="up_337" type="typeNS" route="up" depart="1162" />
    <vehicle id="left_338" type="typeWE" route="left" depart="1165" />
    <vehicle id="up_339" type="typeNS" route="up" depart="1165" />
    <vehicle id="left_340" type="typeWE" route="left" depart="1169" />
    <vehicle id="up_341" type="typeNS" route="up" depart="1171" />
    <vehicle id="down_342" type="typeNS" route="down" depart="1173" />
    <vehicle id="left_343" type="typeWE" route="left" depart="1175" />
    <vehicle id="down_344" type="typeNS" route="down" depart="1176" />
    <vehicle id="down_345" type="typeNS" route="down" depart="1177" />
    <vehicle id="right_346" type="typeWE" route="right" depart="1180" />
    <vehicle id="up_347" type="typeNS" route="up" depart="1180" />
    <vehicle id="right_348" type="typeWE" route="right" depart="1182" />
    <vehicle id="down_349" type="typeNS" route="down" depart="1182" />
    <vehicle id="right_350" type="typeWE" route="right" depart="1184" />
    <vehicle id="down_351" type="typeNS" route="down" depart="1187" />
    <vehicle id="up_352" type="typeNS" route="up" depart="1191" />
    <vehicle id="right_353" type="typeWE" route="right" depart="1209" />
    <vehicle id="down_354" type="typeNS" route="down" depart="1209" />
    <vehicle id="right_355" type="typeWE" route="right" depart="1211" />
    <vehicle id="left_356" type="typeWE" route="left" depart="1213" />
    <vehicle id="down_357" type="typeNS" route="down" depart="1216" />
    <vehicle id="down_358" type="typeNS" route="down" depart="1218" />
    <vehicle id="down_359" type="typeNS" route="down" depart="1220" />
    <vehicle id="left_360" type="typeWE" route="left" depart="1234" />
    <vehicle id="down_361" type="typeNS" route="down" depart="1237" />
    <vehicle id="left_362" type="typeWE" route="left" depart="1238" />
    <vehicle id="up_363" type="typeNS" route="up" depart="1239" />
    <vehicle id="up_364" type="typeNS" route="up" depart="1243" />
    <vehicle id="left_365" type="typeWE" route="left" depart="1252" />
    <vehicle id="down_366" type="typeNS" route="down" depart="1252" />
    <vehicle id="right_367" type="typeWE" route="right" depart="1255" />
    <vehicle id="up_368" type="typeNS" route="up" depart="1256" />
    <vehicle id="right_369" type="typeWE" route="right" depart="1258" />
    <vehicle id="right_370" type="typeWE" route="right" depart="1265" />
    <vehicle id="up_371" type="typeNS" route="up" depart="1267" />
    <vehicle id="right_372" type="typeWE" route="right" depart="1271" />
    <vehicle id="down_373" type="typeNS" route="down" depart="1275" />
    <vehicle id="right_374" type="typeWE" route="right" depart="1277" />
    <vehicle id="up_375" type="typeNS" route="up" depart="1280" />
    <vehicle id="left_376" type="typeWE" route="left" depart="1283" />
    <vehicle id="left_377" type="typeWE" route="left" depart="1285" />
    <vehicle id="right_378" type="typeWE" route="right" depart="1294" />
    <vehicle id="right_379" type="typeWE" route="right" depart="1304" />
    <vehicle id="right_380" type="typeWE" route="right" depart="1307" />
    <vehicle id="left_381" type="typeWE" route="left" depart="1311" />
    <vehicle id="right_382" type="typeWE" route="right" depart="1313" />
    <vehicle id="up_383" type="typeNS" route="up" depart="1318" />
    <vehicle id="right_384" type="typeWE" route="right" depart="1319" />
    <vehicle id="right_385" type="typeWE" route="right" depart="1330" />
    <vehicle id="right_386" type="typeWE" route="right" depart="1331" />
    <vehicle id="up_387" type="typeNS" route="up" depart="1333" />
    <vehicle id="right_388" type="typeWE" route="right" depart="1335" />
    <vehicle id="up_389" type="typeNS" route="up" depart="1335" />
    <vehicle id="right_390" type="typeWE" route="right" depart="1337" />
    <vehicle id="up_391" type="typeNS" route="up" depart="1338" />
    <vehicle id="up_392" type="typeNS" route="up" depart="1348" />
    <vehicle id="left_393" type="typeWE" route="left" depart="1350" />
    <vehicle id="right_394" type="typeWE" route="right" depart="1356" />
    <vehicle id="up_395" type="typeNS" route="up" depart="1357" />
    <vehicle id="up_396" type="typeNS" route="up" depart="1364" />
    <vehicle id="up_397" type="typeNS" route="up" depart="1365" />
    <vehicle id="up_398" type="typeNS" route="up" depart="1369" />
    <vehicle id="right_399" type="typeWE" route="right" depart="1375" />
    <vehicle id="up_400" type="typeNS" route="up" depart="1379" />
    <vehicle id="down_401" type="typeNS" route="down" depart="1383" />
    <vehicle id="left_402" type="typeWE" route="left" depart="1385" />
    <vehicle id="down_403" type="typeNS" route="down" depart="1385" />
    <vehicle id="right_404" type="typeWE" route="right" depart="1386" />
    <vehicle id="down_405" type="typeNS" route="down" depart="1388" />
    <vehicle id="up_406" type="typeNS" route="up" depart="1389" />
    <vehicle id="up_407" type="typeNS" route="up" depart="1390" />
    <vehicle id="up_408" type="typeNS" route="up" depart="1398" />
    <vehicle id="right_409" type="typeWE" route="right" depart="1400" />
    <vehicle id="down_410" type="typeNS" route="down" depart="1400" />
    <vehicle id="left_411" type="typeWE" route="left" depart="1404" />
    <vehicle id="right_412" type="typeWE" route="right" depart="1406" />
    <vehicle id="up_413" type="typeNS" route="up" depart="1410" />
    <vehicle id="down_414" type="typeNS" route="down" depart="1412" />
    <vehicle id="left_415" type="typeWE" route="left" depart="1421" />
    <vehicle id="up_416" type="typeNS" route="up" depart="1428" />
    <vehicle id="left_417" type="typeWE" route="left" depart="1429" />
    <vehicle id="right_418" type="typeWE" route="right" depart="1430" />
    <vehicle id="right_419" type="typeWE" route="right" depart="1432" />
    <vehicle id="right_420" type="typeWE" route="right" depart="1435" />
    <vehicle id="left_421" type="typeWE" route="left" depart="1438" />
    <vehicle id="right_422" type="typeWE" route="right" depart="1440" />
    <vehicle id="up_423" type="typeNS" route="up" depart="1440" />