<routes>
        <vType id="typeWE" accel="0.8" decel="4.5" sigma="0.5" length="5" minGap="2.5" maxSpeed="16.67" guiShape="passenger"/>
        <vType id="typeNS" accel="0.8" decel="4.5" sigma="0.5" length="5" minGap="2.5" maxSpeed="16.67" guiShape="passenger"/>

        <route id="right" edges="51o 1i 2o 52i" />
        <route id="left" edges="52o 2i 1o 51i" />
        <route id="down" edges="54o 4i 3o 53i" />
        <route id="up" edges="53o 3i 4o 54i" /> 
    <vehicle id="left_0" type="typeWE" route="left" depart="0" />
    <vehicle id="left_1" type="typeWE" route="left" depart="2" />
    <vehicle id="right_2" type="typeWE" route="right" depart="3" />
    <vehicle id="up_3" type="typeNS" route="up" depart="4" />
    <vehicle id="left_4" type="typeWE" route="left" depart="10" />
    <vehicle id="up_5" type="typeNS" route="up" depart="16" />
    <vehicle id="left_6" type="typeWE" route="left" depart="22" />
    <vehicle id="right_7" type="typeWE" route="right" depart="25" />
    <vehicle id="right_8" type="typeWE" route="right" depart="31" />
    <vehicle id="down_9" type="typeNS" route="down" depart="31" />
    <vehicle id="up_10" type="typeNS" route="up" depart="32" />
    <vehicle id="left_11" type="typeWE" route="left" depart="49" />
    <vehicle id="up_12" type="typeNS" route="up" depart="51" />
    <vehicle id="left_13" type="typeWE" route="left" depart="67" />
    <vehicle id="down_14" type="typeNS" route="down" depart="72" />
    <vehicle id="left_15" type="typeWE" route="left" depart="74" />
    <vehicle id="right_16" type="typeWE" route="right" depart="81" />
    <vehicle id="down_17" type="typeNS" route="down" depart="85" />
    <vehicle id="right_18" type="typeWE" route="right" depart="92" />
    <vehicle id="down_19" type="typeNS" route="down" depart="98" />
    <vehicle id="up_20" type="typeNS" route="up" depart="103" />
    <vehicle id="up_21" type="typeNS" route="up" depart="106" />
    <vehicle id="up_22" type="typeNS" route="up" depart="108" />
    <vehicle id="left_23" type="typeWE" route="left" depart="120" />
    <vehicle id="left_24" type="typeWE" route="left" depart="123" />
    <vehicle id="left_25" type="typeWE" route="left" depart="125" />
    <vehicle id="right_26" type="typeWE" route="right" depart="126" />
    <vehicle id="right_27" type="typeWE" route="right" depart="127" />
    <vehicle id="down_28" type="typeNS" route="down" depart="129" />
    <vehicle id="right_29" type="typeWE" route="right" depart="132" />
    <vehicle id="up_30" type="typeNS" route="up" depart="135" />
    <vehicle id="left_31" type="typeWE" route="left" depart="147" />
    <vehicle id="down_32" type="typeNS" route="down" depart="149" />
    <vehicle id="left_33" type="typeWE" route="left" depart="159" />
    <vehicle id="up_34" type="typeNS" route="up" depart="162" />
    <vehicle id="right_35" type="typeWE" route="right" depart="171" />
    <vehicle id="right_36" type="typeWE" route="right" depart="179" />
    <vehicle id="right_37" type="typeWE" route="right" depart="182" />
    <vehicle id="left_38" type="typeWE" route="left" depart="204" />
    <vehicle id="down_39" type="typeNS" route="down" depart="206" />
    <vehicle id="up_40" type="typeNS" route="up" depart="212" />
    <vehicle id="right_41" type="typeWE" route="right" depart="216" />
    <vehicle id="down_42" type="typeNS" route="down" depart="220" />
    <vehicle id="right_43" type="typeWE" route="right" depart="227" />
    <vehicle id="right_44" type="typeWE" route="right" depart="239" />
    <vehicle id="down_45" type="typeNS" route="down" depart="241" />
    <vehicle id="up_46" type="typeNS" route="up" depart="248" />
    <vehicle id="left_47" type="typeWE" route="left" depart="253" />
    <vehicle id="down_48" type="typeNS" route="down" depart="256" />
    <vehicle id="left_49" type="typeWE" route="left" depart="258" />
    <vehicle id="down_50" type="typeNS" route="down" depart="258" />
    <vehicle id="up_51" type="typeNS" route="up" depart="259" />
    <vehicle id="left_52" type="typeWE" route="left" depart="262" />
    <vehicle id="up_53" type="typeNS" route="up" depart="263" />
    <vehicle id="left_54" type="typeWE" route="left" depart="281" />
    <vehicle id="left_55" type="typeWE" route="left" depart="283" />
    <vehicle id="up_56" type="typeNS" route="up" depart="284" />
    <vehicle id="left_57" type="typeWE" route="left" depart="287" />
    <vehicle id="left_58" type="typeWE" route="left" depart="291" />
    <vehicle id="right_59" type="typeWE" route="right" depart="292" />
    <vehicle id="down_60" type="typeNS" route="down" depart="293" />
    <vehicle id="right_61" type="typeWE" route="right" depart="296" />
    <vehicle id="left_62" type="typeWE" route="left" depart="296" />
    <vehicle id="left_63" type="typeWE" route="left" depart="298" />
    <vehicle id="down_64" type="typeNS" route="down" depart="330" />
    <vehicle id="left_65" type="typeWE" route="left" depart="343" />
    <vehicle id="up_66" type="typeNS" route="up" depart="344" />
    <vehicle id="up_67" type="typeNS" route="up" depart="347" />
    <vehicle id="left_68" type="typeWE" route="left" depart="350" />
    <vehicle id="right_69" type="typeWE" route="right" depart="352" />
    <vehicle id="left_70" type="typeWE" route="left" depart="357" />
    <vehicle id="left_71" type="typeWE" route="left" depart="359" />
    <vehicle id="down_72" type="typeNS" route="down" depart="362" />
    <vehicle id="right_73" type="typeWE" route="right" depart="363" />
    <vehicle id="left_74" type="typeWE" route="left" depart="372" />
    <vehicle id="left_75" type="typeWE" route="left" depart="376" />
    <vehicle id="right_76" type="typeWE" route="right" depart="389" />
    <vehicle id="right_77" type="typeWE" route="right" depart="402" />
    <vehicle id="left_78" type="typeWE" route="left" depart="402" />
    <vehicle id="left_79" type="typeWE" route="left" depart="414" />
    <vehicle id="up_80" type="typeNS" route="up" depart="415" />
    <vehicle id="up_81" type="typeNS" route="up" depart="423" />
    <vehicle id="left_82" type="typeWE" route="left" depart="430" />
    <vehicle id="up_83" type="typeNS" route="up" depart="433" />
    <vehicle id="down_84" type="typeNS" route="down" depart="434" />
    <vehicle id="up_85" type="typeNS" route="up" depart="436" />
    <vehicle id="down_86" type="typeNS" route="down" depart="450" />
    <vehicle id="up_87" type="typeNS" route="up" depart="451" />
    <vehicle id="right_88" type="typeWE" route="right" depart="459" />
    <vehicle id="down_89" type="typeNS" route="down" depart="468" />
    <vehicle id="right_90" type="typeWE" route="right" depart="483" />
    <vehicle id="up_91" type="typeNS" route="up" depart="484" />
    <vehicle id="left_92" type="typeWE" route="left" depart="490" />
    <vehicle id="down_93" type="typeNS" route="down" depart="490" />
    <vehicle id="down_94" type="typeNS" route="down" depart="494" />
    <vehicle id="left_95" type="typeWE" route="left" depart="495" />
    <vehicle id="right_96" type="typeWE" route="right" depart="496" />
    <vehicle id="down_97" type="typeNS" route="down" depart="512" />
    <vehicle id="up_98" type="typeNS" route="up" depart="525" />
    <vehicle id="right_99" type="typeWE" route="right" depart="528" />
    <vehicle id="right_100" type="typeWE" route="right" depart="530" />
    <vehicle id="down_101" type="typeNS" route="down" depart="530" />
    <vehicle id="down_102" type="typeNS" route="down" depart="531" />
    <vehicle id="left_103" type="typeWE" route="left" depart="538" />
    <vehicle id="down_104" type="typeNS" route="down" depart="540" />
    <vehicle id="up_105" type="typeNS" route="up" depart="541" />
    <vehicle id="right_106" type="typeWE" route="right" depart="543" />
    <vehicle id="left_107" type="typeWE" route="left" depart="550" />
    <vehicle id="left_108" type="typeWE" route="left" depart="555" />
    <vehicle id="down_109" type="typeNS" route="down" depart="557" />
    <vehicle id="up_110" type="typeNS" route="up" depart="580" />
    <vehicle id="down_111" type="typeNS" route="down" depart="582" />
    <vehicle id="down_112" type="typeNS" route="down" depart="585" />
    <vehicle id="up_113" type="typeNS" route="up" depart="593" />
    <vehicle id="right_114" type="typeWE" route="right" depart="606" />
    <vehicle id="down_115" type="typeNS" route="down" depart="606" />
    <vehicle id="left_116" type="typeWE" route="left" depart="609" />
    <vehicle id="left_117" type="typeWE" route="left" depart="613" />
    <vehicle id="right_118" type="typeWE" route="right" depart="629" />
    <vehicle id="right_119" type="typeWE" route="right" depart="634" />
    <vehicle id="up_120" type="typeNS" route="up" depart="635" />
    <vehicle id="up_121" type="typeNS" route="up" depart="640" />
    <vehicle id="right_122" type="typeWE" route="right" depart="642" />
    <vehicle id="up_123" type="typeNS" route="up" depart="646" />
    <vehicle id="left_124" type="typeWE" route="left" depart="659" />
    <vehicle id="right_125" type="typeWE" route="right" depart="660" />
    <vehicle id="up_126" type="typeNS" route="up" depart="671" />
    <vehicle id="left_127" type="typeWE" route="left" depart="676" />
    <vehicle id="up_128" type="typeNS" route="up" depart="683" />
    <vehicle id="right_129" type="typeWE" route="right" depart="687" />
    <vehicle id="up_130" type="typeNS" route="up" depart="688" />
    <vehicle id="up_131" type="typeNS" route="up" depart="690" />
    <vehicle id="up_132" type="typeNS" route="up" depart="701" />
    <vehicle id="left_133" type="typeWE" route="left" depart="704" />
    <vehicle id="left_134" type="typeWE" route="left" depart="706" />
    <vehicle id="right_135" type="typeWE" route="right" depart="709" />
    <vehicle id="right_136" type="typeWE" route="right" depart="711" />
    <vehicle id="down_137" type="typeNS" route="down" depart="712" />
    <vehicle id="left_138" type="typeWE" route="left" depart="714" />
    <vehicle id="up_139" type="typeNS" route="up" depart="715" />
    <vehicle id="left_140" type="typeWE" route="left" depart="727" />
    <vehicle id="right_141" type="typeWE" route="right" depart="731" />
    <vehicle id="right_142" type="typeWE" route="right" depart="733" />
    <vehicle id="up_143" type="typeNS" route="up" depart="741" />
    <vehicle id="down_144" type="typeNS" route="down" depart="747" />
    <vehicle id="up_145" type="typeNS" route="up" depart="754" />
    <vehicle id="left_146" type="typeWE" route="left" depart="758" />
    <vehicle id="up_147" type="typeNS" route="up" depart="760" />
    <vehicle id="left_148" type="typeWE" route="left" depart="782" />
    <vehicle id="down_149" type="typeNS" route="down" depart="783" />
    <vehicle id="left_150" type="typeWE" route="left" depart="785" />
    <vehicle id="down_151" type="typeNS" route="down" depart="792" />
    <vehicle id="up_152" type="typeNS" route="up" depart="795" />
    <vehicle id="right_153" type="typeWE" route="right" depart="801" />
    <vehicle id="up_154" type="typeNS" route="up" depart="801" />
    <vehicle id="up_155" type="typeNS" route="up" depart="802" />
    <vehicle id="right_156" type="typeWE" route="right" depart="814" />
    <vehicle id="left_157" type="typeWE" route="left" depart="828" />
    <vehicle id="down_158" type="typeNS" route="down" depart="831" />
    <vehicle id="left_159" type="typeWE" route="left" depart="832" />
    <vehicle id="left_160" type="typeWE" route="left" depart="841" />
    <vehicle id="left_161" type="typeWE" route="left" depart="842" />
    <vehicle id="left_162" type="typeWE" route="left" depart="843" />
    <vehicle id="left_163" type="typeWE" route="left" depart="850" />
    <vehicle id="down_164" type="typeNS" route="down" depart="851" />
    <vehicle id="up_165" type="typeNS" route="up" depart="855" />
    <vehicle id="down_166" type="typeNS" route="down" depart="857" />
    <vehicle id="up_167" type="typeNS" route="up" depart="862" />
    <vehicle id="left_168" type="typeWE" route="left" depart="865" />
    <vehicle id="left_169" type="typeWE" route="left" depart="867" />
    <vehicle id="up_170" type="typeNS" route="up" depart="872" />
    <vehicle id="left_171" type="typeWE" route="left" depart="875" />
    <vehicle id="left_172" type="typeWE" route="left" depart="879" />
    <vehicle id="up_173" type="typeNS" route="up" depart="881" />
    <vehicle id="right_174" type="typeWE" route="right" depart="886" />
    <vehicle id="left_175" type="typeWE" route="left" depart="892" />
    <vehicle id="right_176" type="typeWE" route="right" depart="906" />
    <vehicle id="right_177" type="typeWE" route="right" depart="909" />
    <vehicle id="up_178" type="typeNS" route="up" depart="913" />
    <vehicle id="down_179" type="typeNS" route="down" depart="921" />
    <vehicle id="right_180" type="typeWE" route="right" depart="928" />
    <vehicle id="up_181" type="typeNS" route="up" depart="932" />
    <vehicle id="up_182" type="typeNS" route="up" depart="934" />
    <vehicle id="down_183" type="typeNS" route="down" depart="941" />
    <vehicle id="left_184" type="typeWE" route="left" depart="950" />
    <vehicle id="right_185" type="typeWE" route="right" depart="961" />
    <vehicle id="up_186" type="typeNS" route="up" depart="966" />
    <vehicle id="left_187" type="typeWE" route="left" depart="967" />
    <vehicle id="down_188" type="typeNS" route="down" depart="976" />
    <vehicle id="right_189" type="typeWE" route="right" depart="978" />
    <vehicle id="left_190" type="typeWE" route="left" depart="988" />
    <vehicle id="down_191" type="typeNS" route="down" depart="988" />
    <vehicle id="down_192" type="typeNS" route="down" depart="989" />
    <vehicle id="down_193" type="typeNS" route="down" depart="991" />
    <vehicle id="left_194" type="typeWE" route="left" depart="999" />
    <vehicle id="down_195" type="typeNS" route="down" depart="1002" />
    <vehicle id="left_196" type="typeWE" route="left" depart="1008" />
    <vehicle id="up_197" type="typeNS" route="up" depart="1017" />
    <vehicle id="up_198" type="typeNS" route="up" depart="1019" />
    <vehicle id="down_199" type="typeNS" route="down" depart="1023" />
    <vehicle id="up_200" type="typeNS" route="up" depart="1024" />
    <vehicle id="left_201" type="typeWE" route="left" depart="1025" />
    <vehicle id="down_202" type="typeNS" route="down" depart="1035" />
    <vehicle id="right_203" type="typeWE" route="right" depart="1038" />
    <vehicle id="up_204" type="typeNS" route="up" depart="1045" />
    <vehicle id="right_205" type="typeWE" route="right" depart="1049" />
    <vehicle id="right_206" type="typeWE" route="right" depart="1052" />
    <vehicle id="right_207" type="typeWE" route="right" depart="1065" />
    <vehicle id="up_208" type="typeNS" route="up" depart="1074" />
    <vehicle id="down_209" type="typeNS" route="down" depart="1077" />
    <vehicle id="right_210" type="typeWE" route="right" depart="1081" />
    <vehicle id="down_211" type="typeNS" route="down" depart="1087" />
    <vehicle id="up_212" type="typeNS" route="up" depart="1088" />
    <vehicle id="up_213" type="typeNS" route="up" depart="1089" />
    <vehicle id="up_214" type="typeNS" route="up" depart="1090" />
    <vehicle id="up_215" type="typeNS" route="up" depart="1097" />
    <vehicle id="right_216" type="typeWE" route="right" depart="1098" />
    <vehicle id="up_217" type="typeNS" route="up" depart="1102" />
    <vehicle id="left_218" type="typeWE" route="left" depart="1106" />
    <vehicle id="up_219" type="typeNS" route="up" depart="1108" />
    <vehicle id="up_220" type="typeNS" route="up" depart="1112" />
    <vehicle id="right_221" type="typeWE" route="right" depart="1113" />
    <vehicle id="left_222" type="typeWE" route="left" depart="1124" />
    <vehicle id="left_223" type="typeWE" route="left" depart="1125" />
    <vehicle id="up_224" type="typeNS" route="up" depart="1134" />
    <vehicle id="up_225" type="typeNS" route="up" depart="1136" />
    <vehicle id="left_226" type="typeWE" route="left" depart="1150" />
    <vehicle id="left_227" type="typeWE" route="left" depart="1152" />
    <vehicle id="down_228" type="typeNS" route="down" depart="1160" />
    <vehicle id="down_229" type="typeNS" route="down" depart="1161" />
    <vehicle id="up_230" type="typeNS" route="up" depart="1162" />
    <vehicle id="up_231" type="typeNS" route="up" depart="1165" />
    <vehicle id="up_232" type="typeNS" route="up" depart="1171" />
    <vehicle id="down_233" type="typeNS" route="down" depart="1173" />
    <vehicle id="down_234" type="typeNS" route="down" depart="1176" />
    <vehicle id="down_235" type="typeNS" route="down" depart="1177" />
    <vehicle id="right_236" type="typeWE" route="right" depart="1180" />
    <vehicle id="up_237" type="typeNS" route="up" depart="1180" />
    <vehicle id="right_238" type="typeWE" route="right" depart="1182" />
    <vehicle id="down_239" type="typeNS" route="down" depart="1182" />
    <vehicle id="right_240" type="typeWE" route="right" depart="1184" />
    <vehicle id="down_241" type="typeNS" route="down" depart="1187" />
    <vehicle id="up_242" type="typeNS" route="up" depart="1191" />
    <vehicle id="right_243" type="typeWE" route="right" depart="1209" />
    <vehicle id="down_244" type="typeNS" route="down" depart="1209" />
    <vehicle id="left_245" type="typeWE" route="left" depart="1213" />
    <vehicle id="down_246" type="typeNS" route="down" depart="1216" />
    <vehicle id="down_247" type="typeNS" route="down" depart="1218" />
    <vehicle id="left_248" type="typeWE" route="left" depart="1234" />
    <vehicle id="down_249" type="typeNS" route="down" depart="1237" />
    <vehicle id="left_250" type="typeWE" route="left" depart="1238" />
    <vehicle id="up_251" type="typeNS" route="up" depart="1239" />
    <vehicle id="left_252" type="typeWE" route="left" depart="1252" />
    <vehicle id="down_253" type="typeNS" route="down" depart="1252" />
    <vehicle id="right_254" type="typeWE" route="right" depart="1255" />
    <vehicle id="up_255" type="typeNS" route="up" depart="1256" />
    <vehicle id="right_256" type="typeWE" route="right" depart="1258" />
    <vehicle id="right_257" type="typeWE" route="right" depart="1265" />
    <vehicle id="up_258" type="typeNS" route="up" depart="1267" />
    <vehicle id="right_259" type="typeWE" route="right" depart="1271" />
    <vehicle id="down_260" type="typeNS" route="down" depart="1275" />
    <vehicle id="right_261" type="typeWE" route="right" depart="1277" />
    <vehicle id="up_262" type="typeNS" route="up" depart="1280" />
    <vehicle id="right_263" type="typeWE" route="right" depart="1294" />
    <vehicle id="right_264" type="typeWE" route="right" depart="1307" />
    <vehicle id="left_265" type="typeWE" route="left" depart="1311" />
    <vehicle id="right_266" type="typeWE" route="right" depart="1313" />
    <vehicle id="right_267" type="typeWE" route="right" depart="1319" />
    <vehicle id="right_268" type="typeWE" route="right" depart="1331" />
    <vehicle id="up_269" type="typeNS" route="up" depart="1333" />
    <vehicle id="up_270" type="typeNS" route="up" depart="1335" />
    <vehicle id="up_271" type="typeNS" route="up" depart="1338" />
    <vehicle id="up_272" type="typeNS" route="up" depart="1348" />
    <vehicle id="left_273" type="typeWE" route="left" depart="1350" />
    <vehicle id="right_274" type="typeWE" route="right" depart="1356" />
    <vehicle id="up_275" type="typeNS" route="up" depart="1357" />
    <vehicle id="up_276" type="typeNS" route="up" depart="1365" />
    <vehicle id="right_277" type="typeWE" route="right" depart="1375" />
    <vehicle id="up_278" type="typeNS" route="up" depart="1379" />
    <vehicle id="left_279" type="typeWE" route="left" depart="1385" />
    <vehicle id="right_280" type="typeWE" route="right" depart="1386" />
    <vehicle id="down_281" type="typeNS" route="down" depart="1388" />
    <vehicle id="up_282" type="typeNS" route="up" depart="1389" />
    <vehicle id="up_283" type="typeNS" route="up" depart="1390" />
    <vehicle id="up_284" type="typeNS" route="up" depart="1398" />
    <vehicle id="right_285" type="typeWE" route="right" depart="1400" />
    <vehicle id="down_286" type="typeNS" route="down" depart="1400" />
    <vehicle id="left_287" type="typeWE" route="left" depart="1404" />
    <vehicle id="right_288" type="typeWE" route="right" depart="1406" />
    <vehicle id="up_289" type="typeNS" route="up" depart="1410" />
    <vehicle id="down_290" type="typeNS" route="down" depart="1412" />
    <vehicle id="up_291" type="typeNS" route="up" depart="1428" />
    <vehicle id="left_292" type="typeWE" route="left" depart="1429" />
    <vehicle id="right_293" type="typeWE" route="right" depart="1430" />
    <vehicle id="right_294" type="typeWE" route="right" depart="1432" />
    <vehicle id="right_295" type="typeWE" route="right" depart="1435" />
    <vehicle id="left_296" type="typeWE" route="left" depart="1438" />
    <vehicle id="up_297" type="typeNS" route="up" depart="1440" />
    <vehicle id="up_298" type="typeNS" route="up" depart="1461" />
    <vehicle id="right_299" type="typeWE" route="right" depart="1465" />
    <vehicle id="down_300" type="typeNS" route="down" depart="1466" />
    <vehicle id="up_301" type="typeNS" route="up" depart="1469" />
    <vehicle id="up_302" type="typeNS" route="up" depart="1475" />
    <vehicle id="left_303" type="typeWE" route="left" depart="1477" />
    <vehicle id="right_304" type="typeWE" route="right" depart="1490" />
    <vehicle id="down_305" type="typeNS" route="down" depart="1491" />
    <vehicle id="up_306" type="typeNS" route="up" depart="1491" />
    <vehicle id="left_307" type="typeWE" route="left" depart="1505" />
    <vehicle id="right_308" type="typeWE" route="right" depart="1513" />
    <vehicle id="down_309" type="typeNS" route="down" depart="1516" />
    <vehicle id="down_310" type="typeNS" route="down" depart="1523" />
    <vehicle id="down_311" type="typeNS" route="down" depart="1530" />
    <vehicle id="up_312" type="typeNS" route="up" depart="1549" />
    <vehicle id="down_313" type="typeNS" route="down" depart="1551" />
    <vehicle id="down_314" type="typeNS" route="down" depart="1557" />
    <vehicle id="up_315" type="typeNS" route="up" depart="1557" />
    <vehicle id="up_316" type="typeNS" route="up" depart="1558" />
    <vehicle id="down_317" type="typeNS" route="down" depart="1562" />
    <vehicle id="up_318" type="typeNS" route="up" depart="1569" />
    <vehicle id="right_319" type="typeWE" route="right" depart="1576" />
    <vehicle id="right_320" type="typeWE" route="right" depart="1586" />
    <vehicle id="down_321" type="typeNS" route="down" depart="1588" />
    <vehicle id="up_322" type="typeNS" route="up" depart="1600" />
    <vehicle id="up_323" type="typeNS" route="up" depart="1608" />
    <vehicle id="left_324" type="typeWE" route="left" depart="1613" />
    <vehicle id="down_325" type="typeNS" route="down" depart="1613" />
    <vehicle id="left_326" type="typeWE" route="left" depart="1632" />
    <vehicle id="up_327" type="typeNS" route="up" depart="1634" />
    <vehicle id="right_328" type="typeWE" route="right" depart="1637" />
    <vehicle id="down_329" type="typeNS" route="down" depart="1641" />
    <vehicle id="left_330" type="typeWE" route="left" depart="1647" />
    <vehicle id="up_331" type="typeNS" route="up" depart="1648" />
    <vehicle id="right_332" type="typeWE" route="right" depart="1655" />
    <vehicle id="down_333" type="typeNS" route="down" depart="1658" />
    <vehicle id="right_334" type="typeWE" route="right" depart="1661" />
    <vehicle id="up_335" type="typeNS" route="up" depart="1661" />
    <vehicle id="down_336" type="typeNS" route="down" depart="1670" />
    <vehicle id="left_337" type="typeWE" route="left" depart="1675" />
    <vehicle id="up_338" type="typeNS" route="up" depart="1675" />
    <vehicle id="up_339" type="typeNS" route="up" depart="1683" />
    <vehicle id="right_340" type="typeWE" route="right" depart="1688" />
    <vehicle id="down_341" type="typeNS" route="down" depart="1688" />
    <vehicle id="up_342" type="typeNS" route="up" depart="1691" />
    <vehicle id="down_343" type="typeNS" route="down" depart="1694" />
    <vehicle id="up_344" type="typeNS" route="up" depart="1694" />
    <vehicle id="up_345" type="typeNS" route="up" depart="1701" />
    <vehicle id="right_346" type="typeWE" route="right" depart="1710" />
    <vehicle id="left_347" type="typeWE" route="left" depart="1710" />
    <vehicle id="up_348" type="typeNS" route="up" depart="1711" />
    <vehicle id="right_349" type="typeWE" route="right" depart="1714" />
    <vehicle id="down_350" type="typeNS" route="down" depart="1718" />
    <vehicle id="right_351" type="typeWE" route="right" depart="1728" />
    <vehicle id="down_352" type="typeNS" route="down" depart="1728" />
    <vehicle id="down_353" type="typeNS" route="down" depart="1734" />
    <vehicle id="down_354" type="typeNS" route="down" depart="1738" />
    <vehicle id="down_355" type="typeNS" route="down" depart="1741" />
    <vehicle id="down_356" type="typeNS" route="down" depart="1744" />
    <vehicle id="down_357" type="typeNS" route="down" depart="1760" />
    <vehicle id="up_358" type="typeNS" route="up" depart="1762" />
    <vehicle id="right_359" type="typeWE" route="right" depart="1774" />
    <vehicle id="right_360" type="typeWE" route="right" depart="1776" />
    <vehicle id="left_361" type="typeWE" route="left" depart="1778" />
    <vehicle id="up_362" type="typeNS" route="up" depart="1778" />
    <vehicle id="right_363" type="typeWE" route="right" depart="1783" />
    <vehicle id="down_364" type="typeNS" route="down" depart="1793" />
    <vehicle id="up_365" type="typeNS" route="up" depart="1794" />
    <vehicle id="left_366" type="typeWE" route="left" depart="1797" />
    <vehicle id="right_367" type="typeWE" route="right" depart="1803" />
    <vehicle id="up_368" type="typeNS" route="up" depart="1803" />
    <vehicle id="up_369" type="typeNS" route="up" depart="1806" />
    <vehicle id="down_370" type="typeNS" route="down" depart="1809" />
    <vehicle id="up_371" type="typeNS" route="up" depart="1810" />
    <vehicle id="right_372" type="typeWE" route="right" depart="1822" />
    <vehicle id="down_373" type="typeNS" route="down" depart="1825" />
    <vehicle id="down_374" type="typeNS" route="down" depart="1826" />
    <vehicle id="up_375" type="typeNS" route="up" depart="1833" />
    <vehicle id="right_376" type="typeWE" route="right" depart="1834" />
    <vehicle id="up_377" type="typeNS" route="up" depart="1838" />
    <vehicle id="up_378" type="typeNS" route="up" depart="1844" />
    <vehicle id="up_379" type="typeNS" route="up" depart="1847" />
    <vehicle id="right_380" type="typeWE" route="right" depart="1854" />
    <vehicle id="down_381" type="typeNS" route="down" depart="1854" />
    <vehicle id="right_382" type="typeWE" route="right" depart="1858" />
    <vehicle id="down_383" type="typeNS" route="down" depart="1859" />
    <vehicle id="up_384" type="typeNS" route="up" depart="1859" />
    <vehicle id="up_385" type="typeNS" route="up" depart="1861" />
    <vehicle id="down_386" type="typeNS" route="down" depart="1862" />
    <vehicle id="up_387" type="typeNS" route="up" depart="1868" />
    <vehicle id="up_388" type="typeNS" route="up" depart="1876" />
    <vehicle id="up_389" type="typeNS" route="up" depart="1885" />
    <vehicle id="left_390" type="typeWE" route="left" depart="1889" />
    <vehicle id="down_391" type="typeNS" route="down" depart="1897" />
    <vehicle id="right_392" type="typeWE" route="right" depart="1900" />
    <vehicle id="down_393" type="typeNS" route="down" depart="1905" />
    <vehicle id="up_394" type="typeNS" route="up" depart="1913" />
    <vehicle id="right_395" type="typeWE" route="right" depart="1928" />
    <vehicle id="down_396" type="typeNS" route="down" depart="1931" />
    <vehicle id="left_397" type="typeWE" route="left" depart="1934" />
    <vehicle id="right_398" type="typeWE" route="right" depart="1937" />
    <vehicle id="left_399" type="typeWE" route="left" depart="1937" />
    <vehicle id="down_400" type="typeNS" route="down" depart="1957" />
    <vehicle id="up_401" type="typeNS" route="up" depart="1960" />
    <vehicle id="left_402" type="typeWE" route="left" depart="1964" />
    <vehicle id="up_403" type="typeNS" route="up" depart="1972" />
    <vehicle id="left_404" type="typeWE" route="left" depart="1977" />
    <vehicle id="left_405" type="typeWE" route="left" depart="1980" />
    <vehicle id="down_406" type="typeNS" route="down" depart="1984" />
    <vehicle id="up_407" type="typeNS" route="up" depart="1987" />
    <vehicle id="down_408" type="typeNS" route="down" depart="1995" />
    <vehicle id="up_409" type="typeNS" route="up" depart="2003" />
    <vehicle id="left_410" type="typeWE" route="left" depart="2004" />
    <vehicle id="down_411" type="typeNS" route="down" depart="2005" />
    <vehicle id="right_412" type="typeWE" route="right" depart="2015" />
    <vehicle id="down_413" type="typeNS" route="down" depart="2015" />
    <vehicle id="right_414" type="typeWE" route="right" depart="2035" />
    <vehicle id="up_415" type="typeNS" route="up" depart="2045" />
    <vehicle id="up_416" type="typeNS" route="up" depart="2054" />
    <vehicle id="right_417" type="typeWE" route="right" depart="2058" />
    <vehicle id="up_418" type="typeNS" route="up" depart="2059" />
    <vehicle id="right_419" type="typeWE" route="right" depart="2065" />
    <vehicle id="left_420" type="typeWE" route="left" depart="2069" />
    <vehicle id="left_421" type="typeWE" route="left" depart="2075" />
    <vehicle id="right_422" type="typeWE" route="right" depart="2077" />
    <vehicle id="left_423" type="typeWE" route="left" depart="2089" />